LTspice 24.1.9 for Windows
Circuit: C:\Projects\gambos\simulations\debounce-simulation.net
Start Time: Wed Jan 21 00:02:31 2026
solver = Normal
Maximum thread count: 16
tnom = 27
temp = 27
method = trap
Direct Newton iteration for .op point succeeded.
Total elapsed time: 0.136 seconds.

Files loaded:
C:\Projects\gambos\simulations\debounce-simulation.net

