LTspice 24.1.9 for Windows
Circuit: C:\Projects\gambos\simulations\Draft2.net
Start Time: Mon Jan 26 21:26:27 2026
C:\Projects\gambos\simulations\Draft2.net(4): Node or model name expected.
M1 OUT 0 N001 N001 DMP4047SK3
                  ^^^^^^^^^^^
