LTspice 24.1.9 for Windows
Circuit: C:\Projects\gambos\simulations\reverse-polarity-protection-simulation.net
Start Time: Wed Jan 28 18:18:27 2026
solver = Normal
Maximum thread count: 16
tnom = 27
temp = 27
method = trap
Instance "m1:M1": Width narrower than recommended for a level 3 MOSFET.
.OP point found by inspection.
Total elapsed time: 0.058 seconds.

Files loaded:
C:\Projects\gambos\simulations\reverse-polarity-protection-simulation.net
C:\Projects\gambos\simulations\models\DMP4047SK3.lib

