LTspice 24.1.9 for Windows
Circuit: C:\Projects\gambos\simulations\slide-switch-simulation.net
Start Time: Tue Feb  3 20:08:07 2026
solver = Normal
Maximum thread count: 16
tnom = 27
temp = 27
method = trap
C:\Projects\gambos\simulations\slide-switch-simulation.net(6): WARNING: Specified period is not longer than the sum of Trise, Tfall, and Ton. Increasing period to 10.

V4 N001 0 PULSE(0 1 1 1n 1n 10 2 1)
^^^^^^^^^^^^^^^^^^^^^^^^^^^^^^^^^^^
Instance "m3:M1": Width narrower than recommended for a level 3 MOSFET.
.OP point found by inspection.
Total elapsed time: 0.175 seconds.

Files loaded:
C:\Projects\gambos\simulations\slide-switch-simulation.net
C:\Projects\gambos\simulations\models\DMP4047SK3.lib

